*Heading
** Job name: ThermalAnalysis Model name: HT20_1
** Generated by: Abaqus/CAE 2023
*Preprint, echo=NO, model=NO, history=NO, contact=NO
**
** PARTS
**
*Part, name=PPSPLATE
*End Part
**  
**
** ASSEMBLY
**
*Assembly, name=Assembly
**  
*Instance, name=PPSPLATE-1, part=PPSPLATE
*Node
      1,  0.126900002,  0.126900002,           0.
      2,  0.126900002,      0.12455,           0.
      3,  0.126900002,  0.122199997,           0.
      4,  0.126900002,  0.119850002,           0.
      5,  0.126900002,       0.1175,           0.
      6,  0.126900002,  0.115149997,           0.
      7,  0.126900002,  0.112800002,           0.
      8,  0.126900002,      0.11045,           0.
      9,  0.126900002,  0.108099997,           0.
     10,  0.126900002,  0.105750002,           0.
     11,  0.126900002,  0.103399999,           0.
     12,  0.126900002,  0.101049997,           0.
     13,  0.126900002, 0.0987000018,           0.
     14,  0.126900002, 0.0963499993,           0.
     15,  0.126900002, 0.0939999968,           0.
     16,  0.126900002, 0.0916500017,           0.
     17,  0.126900002, 0.0892999992,           0.
     18,  0.126900002, 0.0869499967,           0.
     19,  0.126900002, 0.0846000016,           0.
     20,  0.126900002,  0.082249999,           0.
** ... 15105 like lines cut
*Element, type=DC3D8
    1,  3026,  3027,  3082,  3081,     1,     2,    57,    56
    2,  3027,  3028,  3083,  3082,     2,     3,    58,    57
    3,  3028,  3029,  3084,  3083,     3,     4,    59,    58
    4,  3029,  3030,  3085,  3084,     4,     5,    60,    59
    5,  3030,  3031,  3086,  3085,     5,     6,    61,    60
    6,  3031,  3032,  3087,  3086,     6,     7,    62,    61
    7,  3032,  3033,  3088,  3087,     7,     8,    63,    62
    8,  3033,  3034,  3089,  3088,     8,     9,    64,    63
    9,  3034,  3035,  3090,  3089,     9,    10,    65,    64
   10,  3035,  3036,  3091,  3090,    10,    11,    66,    65
   11,  3036,  3037,  3092,  3091,    11,    12,    67,    66
   12,  3037,  3038,  3093,  3092,    12,    13,    68,    67
   13,  3038,  3039,  3094,  3093,    13,    14,    69,    68
   14,  3039,  3040,  3095,  3094,    14,    15,    70,    69
   15,  3040,  3041,  3096,  3095,    15,    16,    71,    70
   16,  3041,  3042,  3097,  3096,    16,    17,    72,    71
   17,  3042,  3043,  3098,  3097,    17,    18,    73,    72
   18,  3043,  3044,  3099,  3098,    18,    19,    74,    73
   19,  3044,  3045,  3100,  3099,    19,    20,    75,    74
   20,  3045,  3046,  3101,  3100,    20,    21,    76,    75
** ... 11644 like lines cut
*Nset, nset=_PickedSet2, internal, generate
     1,  15125,      1
*Elset, elset=_PickedSet2, internal, generate
     1,  11664,      1
*Orientation, name=Ori-1, system=user
** Section: HTSEC
*Solid Section, elset=_PickedSet2, orientation=Ori-1, material=HTMAT
,
*End Instance
**  
*Elset, elset=HTEL, instance=PPSPLATE-1, generate
     1,  11664,      1
*Nset, nset=Set-15, instance=PPSPLATE-1, generate
    1,  3025,     1
*Elset, elset=Set-15, instance=PPSPLATE-1, generate
    1,  2916,     1
*Nset, nset=_PickedSet26, internal, instance=PPSPLATE-1, generate
     1,  15125,      1
*Elset, elset=_PickedSet26, internal, instance=PPSPLATE-1, generate
     1,  11664,      1
*Elset, elset=_Conv_S6, internal, instance=PPSPLATE-1, generate
     1,  11611,     54
*Elset, elset=_Conv_S3, internal, instance=PPSPLATE-1
    1,    2,    3,    4,    5,    6,    7,    8,    9,   10,   11,   12,   13,   14,   15,   16
   17,   18,   19,   20,   21,   22,   23,   24,   25,   26,   27,   28,   29,   30,   31,   32
   33,   34,   35,   36,   37,   38,   39,   40,   41,   42,   43,   44,   45,   46,   47,   48
   49,   50,   51,   52,   53,   54, 2917, 2918, 2919, 2920, 2921, 2922, 2923, 2924, 2925, 2926
 2927, 2928, 2929, 2930, 2931, 2932, 2933, 2934, 2935, 2936, 2937, 2938, 2939, 2940, 2941, 2942
 2943, 2944, 2945, 2946, 2947, 2948, 2949, 2950, 2951, 2952, 2953, 2954, 2955, 2956, 2957, 2958
 2959, 2960, 2961, 2962, 2963, 2964, 2965, 2966, 2967, 2968, 2969, 2970, 5833, 5834, 5835, 5836
 5837, 5838, 5839, 5840, 5841, 5842, 5843, 5844, 5845, 5846, 5847, 5848, 5849, 5850, 5851, 5852
 5853, 5854, 5855, 5856, 5857, 5858, 5859, 5860, 5861, 5862, 5863, 5864, 5865, 5866, 5867, 5868
 5869, 5870, 5871, 5872, 5873, 5874, 5875, 5876, 5877, 5878, 5879, 5880, 5881, 5882, 5883, 5884
 5885, 5886, 8749, 8750, 8751, 8752, 8753, 8754, 8755, 8756, 8757, 8758, 8759, 8760, 8761, 8762
 8763, 8764, 8765, 8766, 8767, 8768, 8769, 8770, 8771, 8772, 8773, 8774, 8775, 8776, 8777, 8778
 8779, 8780, 8781, 8782, 8783, 8784, 8785, 8786, 8787, 8788, 8789, 8790, 8791, 8792, 8793, 8794
 8795, 8796, 8797, 8798, 8799, 8800, 8801, 8802
*Elset, elset=_Conv_S4, internal, instance=PPSPLATE-1, generate
    54,  11664,     54
*Elset, elset=_Conv_S5, internal, instance=PPSPLATE-1
  2863,  2864,  2865,  2866,  2867,  2868,  2869,  2870,  2871,  2872,  2873,  2874,  2875,  2876,  2877,  2878
  2879,  2880,  2881,  2882,  2883,  2884,  2885,  2886,  2887,  2888,  2889,  2890,  2891,  2892,  2893,  2894
  2895,  2896,  2897,  2898,  2899,  2900,  2901,  2902,  2903,  2904,  2905,  2906,  2907,  2908,  2909,  2910
  2911,  2912,  2913,  2914,  2915,  2916,  5779,  5780,  5781,  5782,  5783,  5784,  5785,  5786,  5787,  5788
  5789,  5790,  5791,  5792,  5793,  5794,  5795,  5796,  5797,  5798,  5799,  5800,  5801,  5802,  5803,  5804
  5805,  5806,  5807,  5808,  5809,  5810,  5811,  5812,  5813,  5814,  5815,  5816,  5817,  5818,  5819,  5820
  5821,  5822,  5823,  5824,  5825,  5826,  5827,  5828,  5829,  5830,  5831,  5832,  8695,  8696,  8697,  8698
  8699,  8700,  8701,  8702,  8703,  8704,  8705,  8706,  8707,  8708,  8709,  8710,  8711,  8712,  8713,  8714
  8715,  8716,  8717,  8718,  8719,  8720,  8721,  8722,  8723,  8724,  8725,  8726,  8727,  8728,  8729,  8730
  8731,  8732,  8733,  8734,  8735,  8736,  8737,  8738,  8739,  8740,  8741,  8742,  8743,  8744,  8745,  8746
  8747,  8748, 11611, 11612, 11613, 11614, 11615, 11616, 11617, 11618, 11619, 11620, 11621, 11622, 11623, 11624
 11625, 11626, 11627, 11628, 11629, 11630, 11631, 11632, 11633, 11634, 11635, 11636, 11637, 11638, 11639, 11640
 11641, 11642, 11643, 11644, 11645, 11646, 11647, 11648, 11649, 11650, 11651, 11652, 11653, 11654, 11655, 11656
 11657, 11658, 11659, 11660, 11661, 11662, 11663, 11664
*Elset, elset=_Conv_S1, internal, instance=PPSPLATE-1, generate
  8749,  11664,      1
*Surface, type=ELEMENT, name=Conv
_Conv_S6, S6
_Conv_S3, S3
_Conv_S4, S4
_Conv_S5, S5
_Conv_S1, S1
*Elset, elset=_offbedC_S2, internal, instance=PPSPLATE-1, generate
    1,  2916,     1
*Elset, elset=_offbedC_S6, internal, instance=PPSPLATE-1, generate
     1,  11611,     54
*Elset, elset=_offbedC_S3, internal, instance=PPSPLATE-1
    1,    2,    3,    4,    5,    6,    7,    8,    9,   10,   11,   12,   13,   14,   15,   16
   17,   18,   19,   20,   21,   22,   23,   24,   25,   26,   27,   28,   29,   30,   31,   32
   33,   34,   35,   36,   37,   38,   39,   40,   41,   42,   43,   44,   45,   46,   47,   48
   49,   50,   51,   52,   53,   54, 2917, 2918, 2919, 2920, 2921, 2922, 2923, 2924, 2925, 2926
 2927, 2928, 2929, 2930, 2931, 2932, 2933, 2934, 2935, 2936, 2937, 2938, 2939, 2940, 2941, 2942
 2943, 2944, 2945, 2946, 2947, 2948, 2949, 2950, 2951, 2952, 2953, 2954, 2955, 2956, 2957, 2958
 2959, 2960, 2961, 2962, 2963, 2964, 2965, 2966, 2967, 2968, 2969, 2970, 5833, 5834, 5835, 5836
 5837, 5838, 5839, 5840, 5841, 5842, 5843, 5844, 5845, 5846, 5847, 5848, 5849, 5850, 5851, 5852
 5853, 5854, 5855, 5856, 5857, 5858, 5859, 5860, 5861, 5862, 5863, 5864, 5865, 5866, 5867, 5868
 5869, 5870, 5871, 5872, 5873, 5874, 5875, 5876, 5877, 5878, 5879, 5880, 5881, 5882, 5883, 5884
 5885, 5886, 8749, 8750, 8751, 8752, 8753, 8754, 8755, 8756, 8757, 8758, 8759, 8760, 8761, 8762
 8763, 8764, 8765, 8766, 8767, 8768, 8769, 8770, 8771, 8772, 8773, 8774, 8775, 8776, 8777, 8778
 8779, 8780, 8781, 8782, 8783, 8784, 8785, 8786, 8787, 8788, 8789, 8790, 8791, 8792, 8793, 8794
 8795, 8796, 8797, 8798, 8799, 8800, 8801, 8802
*Elset, elset=_offbedC_S4, internal, instance=PPSPLATE-1, generate
    54,  11664,     54
*Elset, elset=_offbedC_S5, internal, instance=PPSPLATE-1
  2863,  2864,  2865,  2866,  2867,  2868,  2869,  2870,  2871,  2872,  2873,  2874,  2875,  2876,  2877,  2878
  2879,  2880,  2881,  2882,  2883,  2884,  2885,  2886,  2887,  2888,  2889,  2890,  2891,  2892,  2893,  2894
  2895,  2896,  2897,  2898,  2899,  2900,  2901,  2902,  2903,  2904,  2905,  2906,  2907,  2908,  2909,  2910
  2911,  2912,  2913,  2914,  2915,  2916,  5779,  5780,  5781,  5782,  5783,  5784,  5785,  5786,  5787,  5788
  5789,  5790,  5791,  5792,  5793,  5794,  5795,  5796,  5797,  5798,  5799,  5800,  5801,  5802,  5803,  5804
  5805,  5806,  5807,  5808,  5809,  5810,  5811,  5812,  5813,  5814,  5815,  5816,  5817,  5818,  5819,  5820
  5821,  5822,  5823,  5824,  5825,  5826,  5827,  5828,  5829,  5830,  5831,  5832,  8695,  8696,  8697,  8698
  8699,  8700,  8701,  8702,  8703,  8704,  8705,  8706,  8707,  8708,  8709,  8710,  8711,  8712,  8713,  8714
  8715,  8716,  8717,  8718,  8719,  8720,  8721,  8722,  8723,  8724,  8725,  8726,  8727,  8728,  8729,  8730
  8731,  8732,  8733,  8734,  8735,  8736,  8737,  8738,  8739,  8740,  8741,  8742,  8743,  8744,  8745,  8746
  8747,  8748, 11611, 11612, 11613, 11614, 11615, 11616, 11617, 11618, 11619, 11620, 11621, 11622, 11623, 11624
 11625, 11626, 11627, 11628, 11629, 11630, 11631, 11632, 11633, 11634, 11635, 11636, 11637, 11638, 11639, 11640
 11641, 11642, 11643, 11644, 11645, 11646, 11647, 11648, 11649, 11650, 11651, 11652, 11653, 11654, 11655, 11656
 11657, 11658, 11659, 11660, 11661, 11662, 11663, 11664
*Elset, elset=_offbedC_S1, internal, instance=PPSPLATE-1, generate
  8749,  11664,      1
*Surface, type=ELEMENT, name=offbedC
_offbedC_S2, S2
_offbedC_S6, S6
_offbedC_S4, S4
_offbedC_S3, S3
_offbedC_S5, S5
_offbedC_S1, S1
*Element Progressive Activation, name=ElementProgressiveActivation1, elset=HTEL
*End Assembly
** 
** MATERIALS
** 
*Material, name=HTMAT
*Density
1270.,
*User Material, constants=7, type=THERMAL
 0.7018, 0.0041, 0.3913, 0.0011, 59.228, 2.8543, 0.3768
** 
** PHYSICAL CONSTANTS
** 
*Physical Constants, absolute zero=0., stefan boltzmann=5.67e-08
*Parameter table type, name="ABQ_AM_MaterialDeposition", parameters=2
STRING,,"Event series",,,
STRING,,"Deposition process",,"Roller|Bead"
*Parameter table type, name="ABQ_AM_MaterialDeposition_Advanced", parameters=6
STRING,"Partial","Activation type",,"Full|Partial"
FLOAT,0.,"Min volume fraction threshold for partial activation",,,
FLOAT,0.,"Max volume fraction threshold for partial activation",,,
FLOAT,0.,"Max volume fraction threshold for full activation",,,
STRING,"Yes","Orientation for bead type deposition",,,
INTEGER,0,"Element subdivision order",,,
*Parameter table type, name="ABQ_AM_MaterialDeposition_Bead", parameters=5
STRING,,"Stack direction",,"X|Y|Z"
FLOAT,0.,"Bead height",,,
FLOAT,0.,"Bead width",,,
FLOAT,0.,"Activation offset",,,
STRING,,"Deposition position",,"Below|Above"
*Table collection, name="ABQ_AM.Material Input"
*Parameter Table, type="ABQ_AM_MaterialDeposition" ,label="ABQ_AM_MaterialDeposition"
"Event series-1", Bead
*Parameter Table, type="ABQ_AM_MaterialDeposition_Advanced" ,label="ABQ_AM_MaterialDeposition_Advanced"
Partial, 0., 1., 1., Yes, 0
*Parameter Table, type="ABQ_AM_MaterialDeposition_Bead" ,label="ABQ_AM_MaterialDeposition_Bead"
Z, 0.0013, 0.0047, 0., Above
** 
** PREDEFINED FIELDS
** 
** Name: Predefined Field-1   Type: Temperature
*Initial Conditions, type=TEMPERATURE
_PickedSet26, 573.15
** 
** EVENT SERIES TYPE
** 
*Event series type, name="ABQ_AM_HeatSourceTrajectory_RuleID", fields=1
"Rule ID"
** 
** EVENT SERIES TYPE
** 
*Event series type, name="ABQ_AM_MaterialDeposition", fields=1
"On/Off State"
** 
** EVENT SERIES TYPE
** 
*Event series type, name="ABQ_AM_PowerMagnitude", fields=1
"Power Magnitude (unit of JT^-1)"
** 
** EVENT SERIES DATA
** 
*Event series, name="Event series-1", type="ABQ_AM_MaterialDeposition"
0.,0.,0.00235,0.,1.
6.2275,0.12455,0.00235,0.,1.
6.4625,0.12455,0.00705,0.,1.
12.5725,0.00235,0.00705,0.,1.
12.8075,0.00235,0.01175,0.,1.
18.9175,0.12455,0.01175,0.,1.
19.1525,0.12455,0.01645,0.,1.
25.2625,0.00235,0.01645,0.,1.
25.4975,0.00235,0.02115,0.,1.
31.6075,0.12455,0.02115,0.,1.
31.8425,0.12455,0.02585,0.,1.
37.9525,0.00235,0.02585,0.,1.
38.1875,0.00235,0.03055,0.,1.
44.2975,0.12455,0.03055,0.,1.
44.5325,0.12455,0.03525,0.,1.
50.6425,0.00235,0.03525,0.,1.
50.8775,0.00235,0.03995,0.,1.
56.9875,0.12455,0.03995,0.,1.
57.2225,0.12455,0.04465,0.,1.
63.3325,0.00235,0.04465,0.,1.
** ... 88 like lines cut
** ----------------------------------------------------------------
** 
** STEP: PRINTING
** 
*Step, name=PRINTING, nlgeom=NO, inc=100000
*Heat Transfer, end=PERIOD, deltmx=100.
0.1, 344., 1e-05, 1., 
** 
** BOUNDARY CONDITIONS
** 
** Name: BC-1 Type: Temperature
*Boundary
Set-15, 11, 11, 473.15
** 
** INTERACTIONS
** 
** Interaction: Int-1
*Film
HTEL, FFS, 298.15, 30.
** Interaction: Int-2
*Radiate
HTEL, RFS, 298.15, 0.97
** 
** OUTPUT REQUESTS
** 
*Restart, write, frequency=0
** 
** FIELD OUTPUT: F-Output-1
** 
*Output, field
*Node Output
NT, 
*Element Output, directions=YES
TEMP, 
** 
** HISTORY OUTPUT: H-Output-1
** 
*Output, history
*Radiation Output
FTEMP, 
*Activate elements, activation=ElementProgressiveActivation1, expansion time constant=2.
"ABQ_AM.Material Input"
*End Step
** ----------------------------------------------------------------
** 
** STEP: ONBed
** 
*Step, name=ONBed, nlgeom=NO, inc=10000
*Heat Transfer, end=PERIOD, deltmx=100.
1., 300., 1e-05, 5., 
** 
** INTERACTIONS
** 
** Interaction: Int-3
*Film
HTEL, FFS, 298.15, 30.
** Interaction: Int-4
*Radiate
HTEL, RFS, 298.15, 0.97
** 
** OUTPUT REQUESTS
** 
*Restart, write, frequency=0
** 
** FIELD OUTPUT: F-Output-1
** 
*Output, field
*Node Output
NT, 
*Element Output, directions=YES
TEMP, 
** 
** HISTORY OUTPUT: H-Output-1
** 
*Output, history
*Radiation Output
FTEMP, 
*End Step
** ----------------------------------------------------------------
** 
** STEP: OFFBed
** 
*Step, name=OFFBed, nlgeom=NO, inc=100000
*Heat Transfer, end=PERIOD, deltmx=100.
0.1, 600., 1e-05, 5., 
** 
** BOUNDARY CONDITIONS
** 
** Name: BC-1 Type: Temperature
*Boundary, op=NEW
** 
** INTERACTIONS
** 
** Interaction: Int-5
*Film
HTEL, FFS, 298.15, 10.
** Interaction: Int-6
*Radiate
HTEL, RFS, 298.15, 0.97
** 
** OUTPUT REQUESTS
** 
*Restart, write, frequency=0
** 
** FIELD OUTPUT: F-Output-1
** 
*Output, field
*Node Output
NT, 
*Element Output, directions=YES
TEMP, 
** 
** HISTORY OUTPUT: H-Output-1
** 
*Output, history
*Radiation Output
FTEMP, 
*End Step
